data_cif

_audit_creation_method             'generated by GULP'

_symmetry_space_group_name_H-M     'P 1'
_symmetry_Int_Tables_number        1
_symmetry_cell_setting             triclinic

_cell_length_a                        5.3593
_cell_length_b                        7.4290
_cell_length_c                        5.2570
_cell_angle_alpha                   90.0000
_cell_angle_beta                    90.0000
_cell_angle_gamma                   90.0000

loop_
_atom_site_label
_atom_site_fract_x
_atom_site_fract_y
_atom_site_fract_z
_atom_site_occupancy
  K           0.04200      0.25000      0.49060  1.0000
  K           0.45800      0.75000      0.99060  1.0000
  K           0.54200      0.25000      0.00940  1.0000
  K           0.95800      0.75000      0.50940  1.0000
  Ca          0.00000      0.00000      0.00000  1.0000
  Ca          0.50000      0.00000      0.50000  1.0000
  Ca          0.50000      0.50000      0.50000  1.0000
  Ca          0.00000      0.50000      0.00000  1.0000
  F           0.47150      0.25000      0.58120  1.0000
  F           0.02850      0.75000      0.08120  1.0000
  F           0.97150      0.25000      0.91880  1.0000
  F           0.52850      0.75000      0.41880  1.0000
  F           0.29160      0.04040      0.20680  1.0000
  F           0.20840      0.95960      0.70680  1.0000
  F           0.79160      0.45960      0.29320  1.0000
  F           0.70840      0.54040      0.79320  1.0000
  F           0.70840      0.95960      0.79320  1.0000
  F           0.79160      0.04040      0.29320  1.0000
  F           0.20840      0.54040      0.70680  1.0000
  F           0.29160      0.45960      0.20680  1.0000
