data_cif

_audit_creation_method             'generated by GULP'

_symmetry_space_group_name_H-M     'P 1'
_symmetry_Int_Tables_number        1
_symmetry_cell_setting             triclinic

_cell_length_a                        5.3415
_cell_length_b                        5.3415
_cell_length_c                        5.3415
_cell_angle_alpha                   60.0966
_cell_angle_beta                    60.0966
_cell_angle_gamma                   60.0966

loop_
_atom_site_label
_atom_site_fract_x
_atom_site_fract_y
_atom_site_fract_z
_atom_site_occupancy
  Tb          0.00000      0.00000      0.00000  1.0000
  Tb          0.50000      0.50000      0.50000  1.0000
  Ba          0.25000      0.25000      0.25000  1.0000
  Ba          0.75000      0.75000      0.75000  1.0000
  O           0.71240      0.78760      0.25000  1.0000
  O           0.25000      0.71240      0.78760  1.0000
  O           0.78760      0.25000      0.71240  1.0000
  O           0.28760      0.21240      0.75000  1.0000
  O           0.75000      0.28760      0.21240  1.0000
  O           0.21240      0.75000      0.28760  1.0000
