data_cif

_audit_creation_method             'generated by GULP'

_symmetry_space_group_name_H-M     'P 1'
_symmetry_Int_Tables_number        1
_symmetry_cell_setting             triclinic

_cell_length_a                        6.2203
_cell_length_b                        6.2203
_cell_length_c                        3.4530
_cell_angle_alpha                   90.0000
_cell_angle_beta                    90.0000
_cell_angle_gamma                   90.0000

loop_
_atom_site_label
_atom_site_fract_x
_atom_site_fract_y
_atom_site_fract_z
_atom_site_occupancy
  K           0.00000      0.00000      0.00000  1.0000
  K           0.50000      0.50000      0.00000  1.0000
  Zn          0.00000      0.50000      0.00000  1.0000
  Zn          0.50000      0.00000      0.00000  1.0000
  F           0.00000      0.50000      0.50000  1.0000
  F           0.50000      0.00000      0.50000  1.0000
  F           0.20665      0.70665      0.00000  1.0000
  F           0.79335      0.29335      0.00000  1.0000
  F           0.70665      0.79335      0.00000  1.0000
  F           0.29335      0.20665      0.00000  1.0000
